4
Check descr
H       -3.253203170      1.562138770     -0.076796730
O       -2.932748590      0.657202930     -0.076796730
S       -1.290712890      0.352869610     -0.076796730
Cl       0.366311680      0.886183070      0.908011020
4
Check descr
H       -3.253203170      1.562138770     -0.076796730
O       -2.932748590      0.657202930     -0.076796730
S       -1.290712890      0.352869610     -0.076796730
Cl       0.366311680      0.886183070      0.908011020
